<?xml version="1.0" encoding="UTF-8"?>

<!-- generated on 2026-03-16T20:35:43.900880+01:00 by Eclipse SUMO netconvert 1.26.0
<netconvertConfiguration xmlns:xsi="http://www.w3.org/2001/XMLSchema-instance" xsi:noNamespaceSchemaLocation="http://sumo.dlr.de/xsd/netconvertConfiguration.xsd">

    <input>
        <osm-files value="/tmp/embedded_osm_ye_go30h.osm"/>
    </input>

    <output>
        <opendrive-output value="/tmp/osm2xodr_amntk40i.xodr"/>
        <output.street-names value="true"/>
        <output.original-names value="true"/>
        <opendrive-output.shape-match-dist value="10.0"/>
    </output>

    <projection>
        <proj value="+proj=tmerc +lat_0=57.474079 +lon_0=11.984080"/>
    </projection>

    <processing>
        <geometry.remove value="true"/>
        <geometry.min-dist value="0.5"/>
        <geometry.max-grade.fix value="true"/>
        <offset.disable-normalization value="true"/>
        <roundabouts.guess value="true"/>
        <edges.join value="true"/>
    </processing>

    <building_defaults>
        <default.lanewidth value="3.5"/>
        <default.sidewalk-width value="2.0"/>
        <default.bikelane-width value="1.5"/>
        <default.crossing-width value="4.0"/>
    </building_defaults>

    <tls_building>
        <tls.discard-simple value="true"/>
        <tls.join value="true"/>
        <tls.guess-signals value="true"/>
        <tls.default-type value="actuated"/>
        <tls.group-signals value="true"/>
    </tls_building>

    <ramp_guessing>
        <ramps.guess value="true"/>
    </ramp_guessing>

    <edge_removal>
        <remove-edges.isolated value="true"/>
    </edge_removal>

    <junctions>
        <no-internal-links value="false"/>
        <no-turnarounds value="true"/>
        <junctions.join value="false"/>
        <junctions.join-dist value="10.0"/>
        <junctions.join-same value="10"/>
        <junctions.corner-detail value="5"/>
        <junctions.scurve-stretch value="1.0"/>
        <rectangular-lane-cut value="true"/>
    </junctions>

    <pedestrian>
        <sidewalks.guess value="false"/>
        <sidewalks.guess.from-permissions value="false"/>
        <crossings.guess value="false"/>
    </pedestrian>

    <bicycle>
        <bikelanes.guess value="false"/>
        <bikelanes.guess.from-permissions value="false"/>
    </bicycle>

    <formats>
        <osm.layer-elevation value="4"/>
        <osm.layer-elevation.max-grade value="5"/>
        <osm.lane-access value="true"/>
        <osm.bike-access value="true"/>
        <osm.sidewalks value="true"/>
        <osm.crossings value="true"/>
        <osm.turn-lanes value="true"/>
        <osm.all-attributes value="true"/>
    </formats>

    <report>
        <aggregate-warnings value="5"/>
    </report>

</netconvertConfiguration>
-->

<OpenDRIVE>
    <header revMajor="1" revMinor="4" name="" version="1.00" date="Mon Mar 16 20:35:43 2026" north="1324.67" south="799.57" east="1800.11" west="1200.00">
        <geoReference>
 <![CDATA[
 +proj=tmerc +lat_0=57.474079 +lon_0=11.984080
]]>
        </geoReference>
    </header>
    <road name="Valldavägen" length="37.75643529" id="530" junction="-1">
        <link>
            <predecessor elementType="junction" elementId="1"/>
        </link>
        <type s="0" type="town"/>
        <planView>
            <geometry s="0.00000000" x="1372.55821659" y="825.23728996" hdg="-2.24282958" length="0.20000000">
                <line/>
            </geometry>
            <geometry s="0.20000000" x="1372.43370090" y="825.08077848" hdg="-2.24282958" length="8.36064151">
                <paramPoly3 aU="-0.00000000" bU="6.26844147" cU="6.20101654" dU="-4.14332021" aV="0.00000000" bV="0.00000000" cV="-1.59357417" dV="0.86536491" pRange="normalized"/>
            </geometry>
            <geometry s="8.56064151" x="1366.68016168" y="819.01846491" hdg="-2.33726023" length="5.66262580">
                <paramPoly3 aU="-0.00000000" bU="4.24663418" cU="4.25109569" dU="-2.83587003" aV="0.00000000" bV="0.00000000" cV="0.03413145" dV="-0.09424110" pRange="normalized"/>
            </geometry>
            <geometry s="14.22326731" x="1362.70983832" y="814.98153509" hdg="-2.38778298" length="13.87029033">
                <paramPoly3 aU="-0.00000000" bU="10.40105493" cU="10.42284794" dU="-6.95766958" aV="0.00000000" bV="0.00000000" cV="0.07557810" dV="-0.30147624" pRange="normalized"/>
            </geometry>
            <geometry s="28.09355764" x="1352.44554191" y="805.65588902" hdg="-2.46026915" length="9.66287765">
                <line/>
            </geometry>
        </planView>
        <elevationProfile>
            <elevation s="0" a="0.00" b="0" c="0" d="0"/>
        </elevationProfile>
        <lateralProfile/>
        <lanes>
            <laneSection s="0">
                <center>
                    <lane id="0" type="none" level="true">
                        <link/>
                        <roadMark sOffset="0" type="solid" weight="standard" color="standard" width="0.13"/>
                    </lane>
                </center>
                <right>
                    <lane id="-1" type="driving" level="true">
                        <link/>
                        <width sOffset="0" a="3.50" b="0" c="0" d="0"/>
                        <roadMark sOffset="0" type="solid" weight="standard" color="standard" width="0.13"/>
                        <speed sOffset="0" max="13.89"/>
                    </lane>
                 </right>
            </laneSection>
        </lanes>
        <objects/>
        <signals/>
        <userData code="sumoId" value="-1085197654#0"/>
    </road>
    <road name="Valldavägen" length="9.65849444" id="531" junction="-1">
        <link>
            <predecessor elementType="junction" elementId="2"/>
            <successor elementType="junction" elementId="1"/>
        </link>
        <type s="0" type="town"/>
        <planView>
            <geometry s="0.00000000" x="1391.53580226" y="850.73762987" hdg="-2.12609153" length="0.20000000">
                <line/>
            </geometry>
            <geometry s="0.20000000" x="1391.43036343" y="850.56768090" hdg="-2.12609153" length="8.08266303">
                <paramPoly3 aU="-0.00000000" bU="6.06094587" cU="6.03035152" dU="-4.02545547" aV="0.00000000" bV="0.00000000" cV="-1.06146630" dV="0.56249132" pRange="normalized"/>
            </geometry>
            <geometry s="8.28266303" x="1386.75409715" y="843.97682999" hdg="-2.19800014" length="1.37583141">
                <line/>
            </geometry>
        </planView>
        <elevationProfile>
            <elevation s="0" a="0.00" b="0" c="0" d="0"/>
        </elevationProfile>
        <lateralProfile/>
        <lanes>
            <laneSection s="0">
                <center>
                    <lane id="0" type="none" level="true">
                        <link/>
                        <roadMark sOffset="0" type="solid" weight="standard" color="standard" width="0.13"/>
                    </lane>
                </center>
                <right>
                    <lane id="-1" type="driving" level="true">
                        <link/>
                        <width sOffset="0" a="3.50" b="0" c="0" d="0"/>
                        <roadMark sOffset="0" type="solid" weight="standard" color="standard" width="0.13"/>
                        <speed sOffset="0" max="13.89"/>
                    </lane>
                 </right>
            </laneSection>
        </lanes>
        <objects/>
        <signals/>
        <userData code="sumoId" value="-1085197654#1"/>
    </road>
    <road name="Valldavägen" length="15.64694903" id="532" junction="-1">
        <link>
            <predecessor elementType="junction" elementId="3"/>
            <successor elementType="junction" elementId="2"/>
        </link>
        <type s="0" type="town"/>
        <planView>
            <geometry s="0.00000000" x="1404.73840555" y="873.09389404" hdg="-2.09761943" length="15.64694903">
                <line/>
            </geometry>
        </planView>
        <elevationProfile>
            <elevation s="0" a="0.00" b="0" c="0" d="0"/>
        </elevationProfile>
        <lateralProfile/>
        <lanes>
            <laneSection s="0">
                <center>
                    <lane id="0" type="none" level="true">
                        <link/>
                        <roadMark sOffset="0" type="solid" weight="standard" color="standard" width="0.13"/>
                    </lane>
                </center>
                <right>
                    <lane id="-1" type="driving" level="true">
                        <link/>
                        <width sOffset="0" a="3.50" b="0" c="0" d="0"/>
                        <roadMark sOffset="0" type="solid" weight="standard" color="standard" width="0.13"/>
                        <speed sOffset="0" max="13.89"/>
                    </lane>
                 </right>
            </laneSection>
        </lanes>
        <objects/>
        <signals/>
        <userData code="sumoId" value="-1085197654#2"/>
    </road>
    <road name="Valldavägen" length="119.70237329" id="533" junction="-1">
        <link>
            <predecessor elementType="junction" elementId="4"/>
            <successor elementType="junction" elementId="3"/>
        </link>
        <type s="0" type="town"/>
        <planView>
            <geometry s="0.00000000" x="1471.12993347" y="996.12100895" hdg="-1.91823293" length="4.24460332">
                <line/>
            </geometry>
            <geometry s="4.24460332" x="1469.68469401" y="992.13002659" hdg="-1.91823293" length="13.87248201">
                <paramPoly3 aU="-0.00000000" bU="10.40092125" cU="10.40086857" dU="-6.95596463" aV="0.00000000" bV="0.00000000" cV="-1.17497499" dV="0.39290295" pRange="normalized"/>
            </geometry>
            <geometry s="18.11708532" x="1464.23500486" y="979.37779541" hdg="-2.03108166" length="18.03228682">
                <line/>
            </geometry>
            <geometry s="36.14937214" x="1456.22499517" y="963.22220465" hdg="-2.03108166" length="13.88483214">
                <paramPoly3 aU="-0.00000000" bU="10.41317216" cU="10.40344223" dU="-6.93815291" aV="0.00000000" bV="0.00000000" cV="-0.80341536" dV="0.40324430" pRange="normalized"/>
            </geometry>
            <geometry s="50.03420428" x="1449.70160676" y="950.96589062" hdg="-2.06922510" length="6.63167037">
                <paramPoly3 aU="-0.00000000" bU="4.97367368" cU="4.97092232" dU="-3.31429298" aV="0.00000000" bV="0.00000000" cV="-0.28666405" dV="0.15730023" pRange="normalized"/>
            </geometry>
            <geometry s="56.66587465" x="1446.41839177" y="945.20410683" hdg="-2.08961937" length="13.88998840">
                <paramPoly3 aU="-0.00000000" bU="10.41749108" cU="10.41749163" dU="-6.94499584" aV="0.00000000" bV="0.00000000" cV="-0.00818444" dV="0.00231054" pRange="normalized"/>
            </geometry>
            <geometry s="70.55586305" x="1439.52582412" y="933.14490782" hdg="-2.09052527" length="8.12618466">
                <paramPoly3 aU="-0.00000000" bU="6.09463808" cU="6.09463032" dU="-4.06308706" aV="0.00000000" bV="-0.00000000" cV="-0.02271096" dV="0.01600184" pRange="normalized"/>
            </geometry>
            <geometry s="78.68204771" x="1435.48417445" y="926.09508967" hdg="-2.09010136" length="13.88997371">
                <paramPoly3 aU="-0.00000000" bU="10.41747957" cU="10.41748215" dU="-6.94499267" aV="0.00000000" bV="-0.00000000" cV="0.01355612" dV="-0.00340221" pRange="normalized"/>
            </geometry>
            <geometry s="92.57202142" x="1428.59971875" y="914.03127547" hdg="-2.08847855" length="11.37701082">
                <paramPoly3 aU="-0.00000000" bU="8.53275617" cU="8.53274354" dU="-5.68849822" aV="0.00000000" bV="-0.00000000" cV="0.04854528" dV="-0.03615837" pRange="normalized"/>
            </geometry>
            <geometry s="103.94903224" x="1422.98037553" y="904.13888961" hdg="-2.08981276" length="13.88988103">
                <paramPoly3 aU="-0.00000000" bU="10.41739881" cU="10.41752958" dU="-6.94509066" aV="0.00000000" bV="0.00000000" cV="-0.01610866" dV="-0.01145762" pRange="normalized"/>
            </geometry>
            <geometry s="117.83891327" x="1416.06671410" y="892.09191333" hdg="-2.09620502" length="1.86346002">
                <line/>
            </geometry>
        </planView>
        <elevationProfile>
            <elevation s="0" a="0.00" b="0" c="0" d="0"/>
        </elevationProfile>
        <lateralProfile/>
        <lanes>
            <laneSection s="0">
                <center>
                    <lane id="0" type="none" level="true">
                        <link/>
                        <roadMark sOffset="0" type="solid" weight="standard" color="standard" width="0.13"/>
                    </lane>
                </center>
                <right>
                    <lane id="-1" type="driving" level="true">
                        <link/>
                        <width sOffset="0" a="3.50" b="0" c="0" d="0"/>
                        <roadMark sOffset="0" type="solid" weight="standard" color="standard" width="0.13"/>
                        <speed sOffset="0" max="13.89"/>
                    </lane>
                 </right>
            </laneSection>
        </lanes>
        <objects/>
        <signals/>
        <userData code="sumoId" value="-1085197654#3"/>
    </road>
    <road name="" length="86.24371537" id="534" junction="-1">
        <link>
            <predecessor elementType="junction" elementId="5"/>
            <successor elementType="junction" elementId="6"/>
        </link>
        <type s="0" type="town"/>
        <planView>
            <geometry s="0.00000000" x="1329.18584626" y="1064.45797950" hdg="-2.16110307" length="4.63237606">
                <line/>
            </geometry>
            <geometry s="4.63237606" x="1326.60739216" y="1060.60954054" hdg="-2.16110307" length="5.43607062">
                <paramPoly3 aU="-0.00000000" bU="4.06776255" cU="3.81221533" dU="-2.58926895" aV="0.00000000" bV="0.00000000" cV="-2.51041537" dV="1.31679035" pRange="normalized"/>
            </geometry>
            <geometry s="10.06844668" x="1322.67087170" y="1056.87856904" hdg="-2.42739603" length="1.36699055">
                <paramPoly3 aU="-0.00000000" bU="1.02258426" cU="1.00894351" dU="-0.68950254" aV="0.00000000" bV="0.00000000" cV="-0.40444890" dV="0.16371586" pRange="normalized"/>
            </geometry>
            <geometry s="11.43543724" x="1321.49912830" y="1056.18143096" hdg="-2.74335968" length="5.47914474">
                <paramPoly3 aU="-0.00000000" bU="4.10787003" cU="4.12450111" dU="-2.75844524" aV="0.00000000" bV="-0.00000000" cV="-0.10019706" dV="-0.08799775" pRange="normalized"/>
            </geometry>
            <geometry s="16.91458198" x="1316.38056975" y="1054.23216429" hdg="-2.85665008" length="4.60993927">
                <paramPoly3 aU="-0.00000000" bU="3.45367898" cU="3.46508411" dU="-2.33415008" aV="0.00000000" bV="0.00000000" cV="-0.59259839" dV="0.16076923" pRange="normalized"/>
            </geometry>
            <geometry s="21.52452125" x="1311.85943025" y="1053.35783571" hdg="-3.06160083" length="5.44786034">
                <paramPoly3 aU="-0.00000000" bU="4.08276086" cU="4.07081700" dU="-2.73386431" aV="0.00000000" bV="-0.00000000" cV="-0.83365480" dV="0.32339062" pRange="normalized"/>
            </geometry>
            <geometry s="26.97238158" x="1306.41627356" y="1053.43339770" hdg="3.04999210" length="3.33613551">
                <paramPoly3 aU="0.00000000" bU="2.49898465" cU="2.47720804" dU="-1.67112821" aV="-0.00000000" bV="0.00000000" cV="-0.72829011" dV="0.30563612" pRange="normalized"/>
            </geometry>
            <geometry s="30.30851710" x="1303.16372644" y="1054.15660230" hdg="2.83232080" length="5.50782054">
                <paramPoly3 aU="0.00000000" bU="4.12609877" cU="4.18360206" dU="-2.81648004" aV="-0.00000000" bV="-0.00000000" cV="-0.08353448" dV="-0.21753491" pRange="normalized"/>
            </geometry>
            <geometry s="35.81633764" x="1298.02276408" y="1056.11533235" hdg="2.63233455" length="12.87990510">
                <line/>
            </geometry>
            <geometry s="48.69624274" x="1286.77723592" y="1062.39466765" hdg="2.63233455" length="5.52639028">
                <paramPoly3 aU="0.00000000" bU="4.13825982" cU="4.13778031" dU="-2.80035849" aV="-0.00000000" bV="0.00000000" cV="1.02698613" dV="-0.34750065" pRange="normalized"/>
            </geometry>
            <geometry s="54.22263302" x="1281.66511369" y="1064.47096150" hdg="2.87925527" length="7.43459118">
                <line/>
            </geometry>
            <geometry s="61.65722420" x="1274.48488631" y="1066.39903850" hdg="2.87925527" length="5.55245128">
                <paramPoly3 aU="0.00000000" bU="4.16285632" cU="4.16283189" dU="-2.78472170" aV="-0.00000000" bV="-0.00000000" cV="0.48796266" dV="-0.16321056" pRange="normalized"/>
            </geometry>
            <geometry s="67.20967548" x="1269.04927520" y="1067.52238420" hdg="2.99633991" length="19.03403988">
                <line/>
            </geometry>
        </planView>
        <elevationProfile>
            <elevation s="0" a="0.00" b="0" c="0" d="0"/>
        </elevationProfile>
        <lateralProfile/>
        <lanes>
            <laneSection s="0">
                <center>
                    <lane id="0" type="none" level="true">
                        <link/>
                        <roadMark sOffset="0" type="solid" weight="standard" color="standard" width="0.13"/>
                    </lane>
                </center>
                <right>
                    <lane id="-1" type="restricted" level="true">
                        <link/>
                        <width sOffset="0" a="3.50" b="0" c="0" d="0"/>
                        <roadMark sOffset="0" type="solid" weight="standard" color="standard" width="0.13"/>
                        <speed sOffset="0" max="5.56"/>
                    </lane>
                 </right>
            </laneSection>
        </lanes>
        <objects/>
        <signals/>
        <userData code="sumoId" value="-1088718983#0"/>
    </road>
    <road name="" length="16.10878239" id="535" junction="-1">
        <link>
            <predecessor elementType="junction" elementId="6"/>
            <successor elementType="junction" elementId="7"/>
        </link>
        <type s="0" type="town"/>
        <planView>
            <geometry s="0.00000000" x="1241.66384758" y="1075.10516730" hdg="1.82016815" length="2.21947835">
                <line/>
            </geometry>
            <geometry s="2.21947835" x="1241.11609083" y="1077.25599195" hdg="1.82016815" length="5.55943541">
                <paramPoly3 aU="0.00000000" bU="4.16953752" cU="4.16820852" dU="-2.77897926" aV="-0.00000000" bV="-0.00000000" cV="-0.18249310" dV="0.09969712" pRange="normalized"/>
            </geometry>
            <geometry s="7.77891376" x="1239.82444842" y="1082.66324663" hdg="1.80436363" length="0.36236829">
                <paramPoly3 aU="0.00000000" bU="0.27165299" cU="0.27333941" dU="-0.18282382" aV="-0.00000000" bV="0.00000000" cV="0.01596354" dV="-0.02102793" pRange="normalized"/>
            </geometry>
            <geometry s="8.14128205" x="1239.74555158" y="1083.01675337" hdg="1.68941763" length="5.53055839">
                <paramPoly3 aU="0.00000000" bU="4.14589813" cU="4.17252850" dU="-2.79068301" aV="-0.00000000" bV="-0.00000000" cV="0.36279580" dV="-0.39930305" pRange="normalized"/>
            </geometry>
            <geometry s="13.67184044" x="1239.12763082" y="1088.50997248" hdg="1.57524569" length="2.43694195">
                <line/>
            </geometry>
        </planView>
        <elevationProfile>
            <elevation s="0" a="0.00" b="0" c="0" d="0"/>
        </elevationProfile>
        <lateralProfile/>
        <lanes>
            <laneSection s="0">
                <center>
                    <lane id="0" type="none" level="true">
                        <link/>
                        <roadMark sOffset="0" type="solid" weight="standard" color="standard" width="0.13"/>
                    </lane>
                </center>
                <right>
                    <lane id="-1" type="restricted" level="true">
                        <link/>
                        <width sOffset="0" a="3.50" b="0" c="0" d="0"/>
                        <roadMark sOffset="0" type="solid" weight="standard" color="standard" width="0.13"/>
                        <speed sOffset="0" max="5.56"/>
                    </lane>
                 </right>
            </laneSection>
        </lanes>
        <objects/>
        <signals/>
        <userData code="sumoId" value="-1088718984#1"/>
    </road>
    <road name="" length="18.40617849" id="536" junction="-1">
        <link>
            <predecessor elementType="junction" elementId="8"/>
            <successor elementType="junction" elementId="6"/>
        </link>
        <type s="0" type="town"/>
        <planView>
            <geometry s="0.00000000" x="1253.79000000" y="1047.52000000" hdg="1.96583312" length="3.48230788">
                <line/>
            </geometry>
            <geometry s="3.48230788" x="1252.44986116" y="1050.73410891" hdg="1.96583312" length="5.55631038">
                <paramPoly3 aU="0.00000000" bU="4.16650727" cU="4.16650143" dU="-2.78231874" aV="-0.00000000" bV="0.00000000" cV="0.34127464" dV="-0.11394862" pRange="normalized"/>
            </geometry>
            <geometry s="9.03861826" x="1250.10390381" y="1055.76981346" hdg="2.04769647" length="9.36756023">
                <line/>
            </geometry>
        </planView>
        <elevationProfile>
            <elevation s="0" a="0.00" b="0" c="0" d="0"/>
        </elevationProfile>
        <lateralProfile/>
        <lanes>
            <laneSection s="0">
                <center>
                    <lane id="0" type="none" level="true">
                        <link/>
                        <roadMark sOffset="0" type="solid" weight="standard" color="standard" width="0.13"/>
                    </lane>
                </center>
                <right>
                    <lane id="-1" type="restricted" level="true">
                        <link/>
                        <width sOffset="0" a="3.50" b="0" c="0" d="0"/>
                        <roadMark sOffset="0" type="solid" weight="standard" color="standard" width="0.13"/>
                        <speed sOffset="0" max="5.56"/>
                    </lane>
                 </right>
            </laneSection>
        </lanes>
        <objects/>
        <signals/>
        <userData code="sumoId" value="-1088718984#2"/>
    </road>
    <road name="" length="194.68386606" id="537" junction="-1">
        <link>
            <predecessor elementType="junction" elementId="9"/>
        </link>
        <type s="0" type="town"/>
        <planView>
            <geometry s="0.00000000" x="1406.37858994" y="1191.09385972" hdg="1.65693658" length="3.23814661">
                <line/>
            </geometry>
            <geometry s="3.23814661" x="1406.10000000" y="1194.32000000" hdg="1.65693658" length="5.11453572">
                <paramPoly3 aU="0.00000000" bU="3.79316902" cU="3.04494440" dU="-2.28227515" aV="-0.00000000" bV="0.00000000" cV="4.31492441" dV="-2.11873735" pRange="normalized"/>
            </geometry>
            <geometry s="8.35268233" x="1403.52000000" y="1198.67000000" hdg="2.29969161" length="4.31475330">
                <paramPoly3 aU="0.00000000" bU="3.22733529" cU="3.04019877" dU="-2.07583402" aV="-0.00000000" bV="-0.00000000" cV="1.95529123" dV="-0.98244052" pRange="normalized"/>
            </geometry>
            <geometry s="12.66743563" x="1400.00247516" y="1201.14867035" hdg="2.60278019" length="5.51617259">
                <paramPoly3 aU="0.00000000" bU="4.13283425" cU="4.18057195" dU="-2.81241092" aV="-0.00000000" bV="-0.00000000" cV="0.17837126" dV="0.14421563" pRange="normalized"/>
            </geometry>
            <geometry s="18.18360821" x="1395.11534358" y="1203.69444259" hdg="2.79496545" length="50.63208663">
                <line/>
            </geometry>
            <geometry s="68.81569485" x="1347.49465642" y="1220.89555741" hdg="2.79496545" length="5.48258980">
                <paramPoly3 aU="0.00000000" bU="4.09714780" cU="4.09464674" dU="-2.82437004" aV="-0.00000000" bV="-0.00000000" cV="-1.55166013" dV="0.53498197" pRange="normalized"/>
            </geometry>
            <geometry s="74.29828465" x="1342.79185903" y="1223.67522949" hdg="2.42056823" length="11.58750128">
                <line/>
            </geometry>
            <geometry s="85.88578593" x="1334.08814097" y="1231.32477051" hdg="2.42056823" length="5.44568640">
                <paramPoly3 aU="0.00000000" bU="4.06272535" cU="4.05734799" dU="-2.84245950" aV="-0.00000000" bV="-0.00000000" cV="-1.87829087" dV="0.65750216" pRange="normalized"/>
            </geometry>
            <geometry s="91.33147233" x="1330.92987685" y="1235.72578184" hdg="1.96593522" length="9.92307786">
                <line/>
            </geometry>
            <geometry s="101.25455018" x="1327.11012315" y="1244.88421816" hdg="1.96593522" length="5.55866225">
                <paramPoly3 aU="0.00000000" bU="4.16885640" cU="4.16681179" dU="-2.77871737" aV="-0.00000000" bV="0.00000000" cV="-0.24533404" dV="0.11516439" pRange="normalized"/>
            </geometry>
            <geometry s="106.81321243" x="1325.09118977" y="1250.06307465" hdg="1.93110450" length="5.28216373">
                <paramPoly3 aU="0.00000000" bU="3.96070915" cU="3.97324217" dU="-2.65338665" aV="-0.00000000" bV="-0.00000000" cV="0.13858300" dV="-0.20200575" pRange="normalized"/>
            </geometry>
            <geometry s="112.09537616" x="1323.28881023" y="1255.02692535" hdg="1.84798043" length="5.51267939">
                <paramPoly3 aU="0.00000000" bU="4.12959827" cU="4.17979420" dU="-2.81606205" aV="-0.00000000" bV="-0.00000000" cV="-0.27487771" dV="-0.10035525" pRange="normalized"/>
            </geometry>
            <geometry s="117.60805555" x="1322.14647982" y="1260.41325620" hdg="1.64046425" length="11.82216615">
                <line/>
            </geometry>
            <geometry s="129.43022170" x="1321.32352018" y="1272.20674380" hdg="1.64046425" length="5.54599915">
                <paramPoly3 aU="0.00000000" bU="4.15675725" cU="4.15667340" dU="-2.78868859" aV="-0.00000000" bV="0.00000000" cV="-0.66412943" dV="0.22277808" pRange="normalized"/>
            </geometry>
            <geometry s="134.97622085" x="1321.37921488" y="1277.74880695" hdg="1.48103018" length="34.70090847">
                <line/>
            </geometry>
            <geometry s="169.67712932" x="1324.49000000" y="1312.31000000" hdg="1.48103018" length="4.35554639">
                <paramPoly3 aU="0.00000000" bU="3.23975694" cU="2.61295219" dU="-1.89113492" aV="0.00000000" bV="-0.00000000" cV="3.52325086" dV="-1.80117947" pRange="normalized"/>
            </geometry>
            <geometry s="174.03267572" x="1323.13000000" y="1316.41000000" hdg="2.01287648" length="3.84920010">
                <paramPoly3 aU="0.00000000" bU="2.87692218" cU="2.95437239" dU="-2.03146895" aV="-0.00000000" bV="0.00000000" cV="0.55766947" dV="-0.03285975" pRange="normalized"/>
            </geometry>
            <geometry s="177.88187582" x="1321.03000000" y="1319.62000000" hdg="2.37410021" length="3.88668924">
                <paramPoly3 aU="0.00000000" bU="2.89406721" cU="3.00408021" dU="-2.13462349" aV="-0.00000000" bV="0.00000000" cV="1.09520544" dV="-0.24321506" pRange="normalized"/>
            </geometry>
            <geometry s="181.76856506" x="1317.73000000" y="1321.62000000" hdg="2.90318667" length="12.91530100">
                <line/>
            </geometry>
        </planView>
        <elevationProfile>
            <elevation s="0.00000000" a="-0.40741324" b="0.00228935" c="0" d="0"/>
            <elevation s="3.23814661" a="-0.40000000" b="0.00169788" c="0.00013206" d="-0.00001598"/>
            <elevation s="8.35268233" a="-0.39000000" b="0.00180975" c="0.00065989" d="-0.00009889"/>
            <elevation s="12.66743563" a="-0.37784966" b="0.00198452" c="0.00034966" d="-0.00004647"/>
            <elevation s="18.18360821" a="-0.36406322" b="0.00213553" c="0" d="0"/>
            <elevation s="68.81569485" a="-0.25593678" b="0.00159589" c="0.00025730" d="-0.00003449"/>
            <elevation s="74.29828465" a="-0.24513632" b="0.00174953" c="0" d="0"/>
            <elevation s="85.88578593" a="-0.22486368" b="0.00130522" c="0.00029212" d="-0.00003418"/>
            <elevation s="91.33147233" a="-0.21461347" b="0.00193760" c="0" d="0"/>
            <elevation s="101.25455018" a="-0.19538653" b="0.00145315" c="0.00040234" d="-0.00004326"/>
            <elevation s="106.81321243" a="-0.18230694" b="0.00191585" c="0.00048835" d="-0.00006196"/>
            <elevation s="112.09537616" a="-0.16769306" b="0.00188688" c="0.00031400" d="-0.00004449"/>
            <elevation s="117.60805555" a="-0.15520198" b="0.00172591" c="0" d="0"/>
            <elevation s="129.43022170" a="-0.13479802" b="0.00129358" c="0.00029178" d="-0.00003176"/>
            <elevation s="134.97622085" a="-0.12406631" b="0.00213442" c="0" d="0"/>
            <elevation s="169.67712932" a="-0.05000000" b="0.00158763" c="0.00043004" d="-0.00006140"/>
            <elevation s="174.03267572" a="-0.04000000" b="0.00184830" c="0.00080566" d="-0.00015871"/>
            <elevation s="177.88187582" a="-0.03000000" b="0.00099234" c="-0.00095564" d="0.00018018"/>
            <elevation s="181.76856506" a="-0.03000000" b="0.00232283" c="0" d="0"/>
        </elevationProfile>
        <lateralProfile/>
        <lanes>
            <laneSection s="0">
                <center>