<?xml version="1.0" encoding="UTF-8"?>

<!-- generated on 2026-03-16T20:35:06.190774+01:00 by Eclipse SUMO netconvert 1.26.0
<netconvertConfiguration xmlns:xsi="http://www.w3.org/2001/XMLSchema-instance" xsi:noNamespaceSchemaLocation="http://sumo.dlr.de/xsd/netconvertConfiguration.xsd">

    <input>
        <osm-files value="/tmp/embedded_osm_7xskf2v7.osm"/>
    </input>

    <output>
        <opendrive-output value="/tmp/osm2xodr_ai617cmz.xodr"/>
        <output.street-names value="true"/>
        <output.original-names value="true"/>
        <opendrive-output.shape-match-dist value="10.0"/>
    </output>

    <projection>
        <proj value="+proj=tmerc +lat_0=57.474079 +lon_0=11.984080"/>
    </projection>

    <processing>
        <geometry.remove value="true"/>
        <geometry.min-dist value="0.5"/>
        <geometry.max-grade.fix value="true"/>
        <offset.disable-normalization value="true"/>
        <roundabouts.guess value="true"/>
        <edges.join value="true"/>
    </processing>

    <building_defaults>
        <default.lanewidth value="3.5"/>
        <default.sidewalk-width value="2.0"/>
        <default.bikelane-width value="1.5"/>
        <default.crossing-width value="4.0"/>
    </building_defaults>

    <tls_building>
        <tls.discard-simple value="true"/>
        <tls.join value="true"/>
        <tls.guess-signals value="true"/>
        <tls.default-type value="actuated"/>
        <tls.group-signals value="true"/>
    </tls_building>

    <ramp_guessing>
        <ramps.guess value="true"/>
    </ramp_guessing>

    <edge_removal>
        <remove-edges.isolated value="true"/>
    </edge_removal>

    <junctions>
        <no-internal-links value="false"/>
        <no-turnarounds value="true"/>
        <junctions.join value="false"/>
        <junctions.join-dist value="10.0"/>
        <junctions.join-same value="10"/>
        <junctions.corner-detail value="5"/>
        <junctions.scurve-stretch value="1.0"/>
        <rectangular-lane-cut value="true"/>
    </junctions>

    <pedestrian>
        <sidewalks.guess value="false"/>
        <sidewalks.guess.from-permissions value="false"/>
        <crossings.guess value="false"/>
    </pedestrian>

    <bicycle>
        <bikelanes.guess value="false"/>
        <bikelanes.guess.from-permissions value="false"/>
    </bicycle>

    <formats>
        <osm.layer-elevation value="4"/>
        <osm.layer-elevation.max-grade value="5"/>
        <osm.lane-access value="true"/>
        <osm.bike-access value="true"/>
        <osm.sidewalks value="true"/>
        <osm.crossings value="true"/>
        <osm.turn-lanes value="true"/>
        <osm.all-attributes value="true"/>
    </formats>

    <report>
        <aggregate-warnings value="5"/>
    </report>

</netconvertConfiguration>
-->

<OpenDRIVE>
    <header revMajor="1" revMinor="4" name="" version="1.00" date="Mon Mar 16 20:35:06 2026" north="1268.16" south="799.55" east="1800.11" west="1200.00">
        <geoReference>
 <![CDATA[
 +proj=tmerc +lat_0=57.474079 +lon_0=11.984080
]]>
        </geoReference>
    </header>
    <road name="Valldavägen" length="41.21516224" id="240" junction="-1">
        <link>
            <predecessor elementType="junction" elementId="1"/>
        </link>
        <type s="0" type="town"/>
        <planView>
            <geometry s="0.00000000" x="1374.69518687" y="827.92338046" hdg="-2.24282958" length="0.20000000">
                <line/>
            </geometry>
            <geometry s="0.20000000" x="1374.57067119" y="827.76686898" hdg="-2.24282958" length="11.78327390">
                <paramPoly3 aU="-0.00000000" bU="8.83583763" cU="8.79367490" dU="-5.87092310" aV="0.00000000" bV="-0.00000000" cV="-1.51488217" dV="0.78667291" pRange="normalized"/>
            </geometry>
            <geometry s="11.98327390" x="1366.68016168" y="819.01846491" hdg="-2.31870112" length="5.66289225">
                <paramPoly3 aU="-0.00000000" bU="4.24663418" cU="4.24955533" dU="-2.83642025" aV="0.00000000" bV="0.00000000" cV="-0.20208139" dV="0.03690908" pRange="normalized"/>
            </geometry>
            <geometry s="17.64616615" x="1362.70983832" y="814.98153509" hdg="-2.38785460" length="13.87021947">
                <paramPoly3 aU="-0.00000000" bU="10.40099582" cU="10.42286702" dU="-6.95771499" aV="0.00000000" bV="0.00000000" cV="0.07570938" dV="-0.30201272" pRange="normalized"/>
            </geometry>
            <geometry s="31.51638562" x="1352.44465902" y="805.65697808" hdg="-2.46047102" length="9.69877661">
                <line/>
            </geometry>
        </planView>
        <elevationProfile>
            <elevation s="0" a="0.00" b="0" c="0" d="0"/>
        </elevationProfile>
        <lateralProfile/>
        <lanes>
            <laneSection s="0">
                <center>
                    <lane id="0" type="none" level="true">
                        <link/>
                        <roadMark sOffset="0" type="solid" weight="standard" color="standard" width="0.13"/>
                    </lane>
                </center>
                <right>
                    <lane id="-1" type="driving" level="true">
                        <link/>
                        <width sOffset="0" a="3.50" b="0" c="0" d="0"/>
                        <roadMark sOffset="0" type="solid" weight="standard" color="standard" width="0.13"/>
                        <speed sOffset="0" max="13.89"/>
                    </lane>
                 </right>
            </laneSection>
        </lanes>
        <objects/>
        <signals/>
        <userData code="sumoId" value="-1085197654#0"/>
    </road>
    <road name="Valldavägen" length="182.11397424" id="241" junction="-1">
        <link>
            <predecessor elementType="junction" elementId="2"/>
            <successor elementType="junction" elementId="1"/>
        </link>
        <type s="0" type="town"/>
        <planView>
            <geometry s="0.00000000" x="1472.04200852" y="998.63967490" hdg="-1.91823293" length="6.92332672">
                <line/>
            </geometry>
            <geometry s="6.92332672" x="1469.68469401" y="992.13002659" hdg="-1.91823293" length="13.87248201">
                <paramPoly3 aU="-0.00000000" bU="10.40092125" cU="10.40086857" dU="-6.95596463" aV="0.00000000" bV="0.00000000" cV="-1.17497499" dV="0.39290295" pRange="normalized"/>
            </geometry>
            <geometry s="20.79580873" x="1464.23500486" y="979.37779541" hdg="-2.03108166" length="18.03228682">
                <line/>
            </geometry>
            <geometry s="38.82809554" x="1456.22499517" y="963.22220465" hdg="-2.03108166" length="13.88483214">
                <paramPoly3 aU="-0.00000000" bU="10.41317216" cU="10.40344223" dU="-6.93815291" aV="0.00000000" bV="0.00000000" cV="-0.80341536" dV="0.40324430" pRange="normalized"/>
            </geometry>
            <geometry s="52.71292768" x="1449.70160676" y="950.96589062" hdg="-2.06922510" length="6.63167037">
                <paramPoly3 aU="-0.00000000" bU="4.97367368" cU="4.97092232" dU="-3.31429298" aV="0.00000000" bV="0.00000000" cV="-0.28666405" dV="0.15730023" pRange="normalized"/>
            </geometry>
            <geometry s="59.34459805" x="1446.41839177" y="945.20410683" hdg="-2.08961937" length="13.88998840">
                <paramPoly3 aU="-0.00000000" bU="10.41749108" cU="10.41749163" dU="-6.94499584" aV="0.00000000" bV="0.00000000" cV="-0.00818444" dV="0.00231054" pRange="normalized"/>
            </geometry>
            <geometry s="73.23458646" x="1439.52582412" y="933.14490782" hdg="-2.09052527" length="8.12618483">
                <paramPoly3 aU="-0.00000000" bU="6.09463821" cU="6.09463045" dU="-4.06308715" aV="0.00000000" bV="0.00000000" cV="-0.02271093" dV="0.01600181" pRange="normalized"/>
            </geometry>
            <geometry s="81.36077128" x="1435.48417436" y="926.09508952" hdg="-2.09010137" length="13.88997573">
                <paramPoly3 aU="-0.00000000" bU="10.41747957" cU="10.41750673" dU="-6.94501725" aV="0.00000000" bV="0.00000000" cV="0.00221393" dV="0.00793993" pRange="normalized"/>
            </geometry>
            <geometry s="95.25074702" x="1428.59971856" y="914.03127538" hdg="-2.08738980" length="18.32219805">
                <line/>
            </geometry>
            <geometry s="113.57294506" x="1419.55000000" y="898.10000000" hdg="-2.08738980" length="11.88284165">
                <paramPoly3 aU="-0.00000000" bU="8.91207047" cU="8.91184874" dU="-5.94162032" aV="0.00000000" bV="-0.00000000" cV="-0.17025564" dV="0.06550323" pRange="normalized"/>
            </geometry>
            <geometry s="125.45578671" x="1413.59000000" y="887.82000000" hdg="-2.10354854" length="10.31122215">
                <paramPoly3 aU="-0.00000000" bU="7.73339482" cU="7.73235929" dU="-5.15493021" aV="0.00000000" bV="-0.00000000" cV="-0.22838299" dV="0.14112706" pRange="normalized"/>
            </geometry>
            <geometry s="135.76700887" x="1408.27790677" y="878.98244556" hdg="-2.10786552" length="13.88965325">
                <paramPoly3 aU="-0.00000000" bU="10.41722827" cU="10.41725485" dU="-6.94491119" aV="0.00000000" bV="0.00000000" cV="0.05993394" dV="-0.01719031" pRange="normalized"/>
            </geometry>
            <geometry s="149.65666211" x="1401.20844965" y="867.02649259" hdg="-2.10130932" length="12.90614823">
                <paramPoly3 aU="-0.00000000" bU="9.67957177" cU="9.67951330" dU="-6.45307983" aV="0.00000000" bV="0.00000000" cV="0.20915614" dV="-0.16083668" pRange="normalized"/>
            </geometry>
            <geometry s="162.56281034" x="1394.72000000" y="855.87000000" hdg="-2.10794166" length="7.38055243">
                <paramPoly3 aU="-0.00000000" bU="5.53401414" cU="5.55279496" dU="-3.70933888" aV="0.00000000" bV="0.00000000" cV="0.09596701" dV="-0.22988182" pRange="normalized"/>
            </geometry>
            <geometry s="169.94336278" x="1390.83000000" y="849.60000000" hdg="-2.19800014" length="12.17061147">
                <line/>
            </geometry>
        </planView>
        <elevationProfile>
            <elevation s="0" a="0.00" b="0" c="0" d="0"/>
        </elevationProfile>
        <lateralProfile/>
        <lanes>
            <laneSection s="0">
                <center>
                    <lane id="0" type="none" level="true">
                        <link/>
                        <roadMark sOffset="0" type="solid" weight="standard" color="standard" width="0.13"/>
                    </lane>
                </center>
                <right>
                    <lane id="-1" type="driving" level="true">
                        <link/>
                        <width sOffset="0" a="3.50" b="0" c="0" d="0"/>
                        <roadMark sOffset="0" type="solid" weight="standard" color="standard" width="0.13"/>
                        <speed sOffset="0" max="13.89"/>
                    </lane>
                 </right>
            </laneSection>
        </lanes>
        <objects/>
        <signals/>
        <userData code="sumoId" value="-1085197654#1"/>
    </road>
    <road name="Sandövägen" length="124.07891446" id="242" junction="-1">
        <link>
            <predecessor elementType="junction" elementId="3"/>
        </link>
        <type s="0" type="town"/>
        <planView>
            <geometry s="0.00000000" x="1260.17444862" y="1105.39548735" hdg="1.41475811" length="0.74354620">
                <line/>
            </geometry>
            <geometry s="0.74354620" x="1260.29000000" y="1106.13000000" hdg="1.41475811" length="9.96275582">
                <paramPoly3 aU="0.00000000" bU="7.46250000" cU="7.26153362" dU="-4.89491897" aV="0.00000000" bV="0.00000000" cV="3.09384656" dV="-1.54755901" pRange="normalized"/>
            </geometry>
            <geometry s="10.70630202" x="1260.29000000" y="1116.08000000" hdg="1.62330381" length="4.01574404">
                <paramPoly3 aU="0.00000000" bU="3.00529221" cU="3.02728626" dU="-2.05969572" aV="-0.00000000" bV="0.00000000" cV="0.71053147" dV="-0.18832201" pRange="normalized"/>
            </geometry>
            <geometry s="14.72204606" x="1259.56000000" y="1120.02000000" hdg="1.91216744" length="12.34676003">
                <paramPoly3 aU="0.00000000" bU="9.25386946" cU="9.31727282" dU="-6.24880305" aV="-0.00000000" bV="0.00000000" cV="0.45895030" dV="0.17220410" pRange="normalized"/>
            </geometry>
            <geometry s="27.06880609" x="1254.84000000" y="1131.42000000" hdg="2.06781274" length="10.59235240">
                <paramPoly3 aU="0.00000000" bU="7.93974255" cU="7.74933792" dU="-5.18123759" aV="-0.00000000" bV="0.00000000" cV="3.01549183" dV="-1.72883686" pRange="normalized"/>
            </geometry>
            <geometry s="37.66115848" x="1248.69882591" y="1140.04300550" hdg="2.17437456" length="13.88554915">
                <paramPoly3 aU="0.00000000" bU="10.41372339" cU="10.41864482" dU="-6.94834573" aV="-0.00000000" bV="0.00000000" cV="-0.08359483" dV="-0.07814490" pRange="normalized"/>
            </geometry>
            <geometry s="51.54670764" x="1240.95152641" y="1151.56566102" hdg="2.13579816" length="32.12732268">
                <line/>
            </geometry>
            <geometry s="83.67403032" x="1223.75000000" y="1178.70000000" hdg="2.13579816" length="13.27894601">
                <paramPoly3 aU="0.00000000" bU="9.93569974" cU="8.82563419" dU="-5.90405900" aV="-0.00000000" bV="0.00000000" cV="8.47777465" dV="-5.28569416" pRange="normalized"/>
            </geometry>
            <geometry s="96.95297634" x="1214.17000009" y="1187.84999992" hdg="2.24658220" length="13.75418807">
                <paramPoly3 aU="0.00000000" bU="10.30887189" cU="10.05460142" dU="-6.73030270" aV="-0.00000000" bV="-0.00000000" cV="-3.95779048" dV="2.20674740" pRange="normalized"/>
            </geometry>
            <geometry s="110.70716441" x="1207.00849770" y="1199.58210869" hdg="2.12059637" length="13.17175005">
                <paramPoly3 aU="0.00000000" bU="9.87880312" cU="9.87890479" dU="-6.58599250" aV="-0.00000000" bV="-0.00000000" cV="0.01475832" dV="0.00936024" pRange="normalized"/>
            </geometry>
            <geometry s="123.87891446" x="1200.10549160" y="1210.80009316" hdg="2.12642680" length="0.20000000">
                <line/>
            </geometry>
        </planView>
        <elevationProfile>
            <elevation s="0" a="0.00" b="0" c="0" d="0"/>
        </elevationProfile>
        <lateralProfile/>
        <lanes>
            <laneSection s="0">
                <center>
                    <lane id="0" type="none" level="true">
                        <link/>
                        <roadMark sOffset="0" type="solid" weight="standard" color="standard" width="0.13"/>
                    </lane>
                </center>
                <right>
                    <lane id="-1" type="driving" level="true">
                        <link/>
                        <width sOffset="0" a="3.50" b="0" c="0" d="0"/>
                        <roadMark sOffset="0" type="solid" weight="standard" color="standard" width="0.13"/>
                        <speed sOffset="0" max="13.89"/>
                    </lane>
                 </right>
            </laneSection>
        </lanes>
        <objects/>
        <signals/>
        <userData code="sumoId" value="-1125794249"/>
    </road>
    <road name="Säröleden" length="239.81526810" id="243" junction="-1">
        <link>
            <predecessor elementType="junction" elementId="4"/>
        </link>
        <type s="0" type="town"/>
        <planView>
            <geometry s="0.00000000" x="1416.63229868" y="1165.29894418" hdg="2.76168095" length="4.29038656">
                <line/>
            </geometry>
            <geometry s="4.29038656" x="1412.64782792" y="1166.88998458" hdg="2.76168095" length="22.21970441">
                <paramPoly3 aU="0.00000000" bU="16.66475489" cU="16.66414140" dU="-11.10954991" aV="-0.00000000" bV="-0.00000000" cV="-0.25094780" dV="0.13043561" pRange="normalized"/>
            </geometry>
            <geometry s="26.51009097" x="1392.05746966" y="1175.24169239" hdg="2.75504481" length="6.39718210">
                <paramPoly3 aU="0.00000000" bU="4.79786677" cU="4.79805748" dU="-3.19882529" aV="-0.00000000" bV="-0.00000000" cV="-0.02197371" dV="-0.00496628" pRange="normalized"/>
            </geometry>
            <geometry s="32.90727306" x="1386.14253034" y="1177.67830761" hdg="2.74277941" length="22.21883959">
                <paramPoly3 aU="0.00000000" bU="16.66410343" cU="16.66439119" dU="-11.10974978" aV="-0.00000000" bV="-0.00000000" cV="-0.02981674" dV="-0.02170630" pRange="normalized"/>
            </geometry>
            <geometry s="55.12611266" x="1365.68746493" y="1186.35388113" hdg="2.73529305" length="22.05625412">
                <paramPoly3 aU="0.00000000" bU="16.54213826" cU="16.54224657" dU="-11.02849932" aV="-0.00000000" bV="0.00000000" cV="-0.16211725" dV="0.04730281" pRange="normalized"/>
            </geometry>
            <geometry s="77.18236677" x="1345.47253507" y="1195.17611887" hdg="2.72427091" length="22.21857624">
                <paramPoly3 aU="0.00000000" bU="16.66388060" cU="16.66375961" dU="-11.10950312" aV="-0.00000000" bV="-0.00000000" cV="-0.20321686" dV="0.07492617" pRange="normalized"/>
            </geometry>
            <geometry s="99.40094301" x="1325.21320644" y="1204.29871046" hdg="2.71336956" length="17.62560561">
                <paramPoly3 aU="0.00000000" bU="13.21916387" cU="13.21881690" dU="-8.81279710" aV="-0.00000000" bV="0.00000000" cV="-0.20024473" dV="0.08632489" pRange="normalized"/>
            </geometry>
            <geometry s="117.02654862" x="1309.22679356" y="1211.72128954" hdg="2.70266408" length="22.21943249">
                <paramPoly3 aU="0.00000000" bU="16.66451781" cU="16.66514351" dU="-11.11043004" aV="-0.00000000" bV="-0.00000000" cV="-0.04146459" dV="-0.03330452" pRange="normalized"/>
            </geometry>
            <geometry s="139.24598111" x="1289.14555324" y="1221.23147441" hdg="2.69169188" length="23.97705727">
                <line/>
            </geometry>
            <geometry s="163.22303837" x="1267.55444676" y="1231.65852559" hdg="2.69169188" length="22.21574766">
                <paramPoly3 aU="0.00000000" bU="16.66135886" cU="16.65497240" dU="-11.10603991" aV="-0.00000000" bV="0.00000000" cV="-0.87121992" dV="0.40685798" pRange="normalized"/>
            </geometry>
            <geometry s="185.43878603" x="1247.75623573" y="1241.73540575" hdg="2.66036483" length="22.08972501">
                <paramPoly3 aU="0.00000000" bU="16.56710985" cU="16.56700637" dU="-11.04584989" aV="-0.00000000" bV="-0.00000000" cV="-0.35228771" dV="0.12075265" pRange="normalized"/>
            </geometry>
            <geometry s="207.52851103" x="1228.28376427" y="1252.16459425" hdg="2.63970088" length="22.21598749">
                <paramPoly3 aU="0.00000000" bU="16.66156421" cU="16.66586250" dU="-11.11314632" aV="-0.00000000" bV="0.00000000" cV="-0.16779227" dV="-0.05712032" pRange="normalized"/>
            </geometry>
            <geometry s="229.74449852" x="1208.91728362" y="1263.04872335" hdg="2.60927014" length="10.07076958">
                <line/>
            </geometry>
        </planView>
        <elevationProfile>
            <elevation s="0" a="0.00" b="0" c="0" d="0"/>
        </elevationProfile>
        <lateralProfile/>
        <lanes>
            <laneSection s="0">
                <center>
                    <lane id="0" type="none" level="true">
                        <link/>
                        <roadMark sOffset="0" type="solid" weight="standard" color="standard" width="0.13"/>
                    </lane>
                </center>
                <right>
                    <lane id="-1" type="driving" level="true">
                        <link/>
                        <width sOffset="0" a="3.50" b="0" c="0" d="0"/>
                        <roadMark sOffset="0" type="solid" weight="standard" color="standard" width="0.13"/>
                        <speed sOffset="0" max="22.22"/>
                    </lane>
                 </right>
            </laneSection>
        </lanes>
        <objects/>
        <signals/>
        <userData code="sumoId" value="-1203045204"/>
    </road>
    <road name="Sandövägen" length="52.40907933" id="244" junction="-1">
        <link>
            <predecessor elementType="junction" elementId="5"/>
            <successor elementType="junction" elementId="3"/>
        </link>
        <type s="0" type="town"/>
        <planView>
            <geometry s="0.00000000" x="1200.24000000" y="1109.81000000" hdg="-0.17866137" length="9.00331050">
                <line/>
            </geometry>
            <geometry s="9.00331050" x="1209.10000000" y="1108.21000000" hdg="-0.17866137" length="13.25010220">
                <paramPoly3 aU="0.00000000" bU="9.93659147" cU="9.89231267" dU="-6.59754885" aV="0.00000000" bV="0.00000000" cV="-1.63913923" dV="0.95970026" pRange="normalized"/>
            </geometry>
            <geometry s="22.25341270" x="1222.00000000" y="1105.19000000" hdg="-0.21884468" length="11.44191003">
                <paramPoly3 aU="0.00000000" bU="8.58137664" cU="8.57871933" dU="-5.71920934" aV="0.00000000" bV="0.00000000" cV="0.38505328" dV="-0.23769935" pRange="normalized"/>
            </geometry>
            <geometry s="33.69532273" x="1233.20000000" y="1102.85000000" hdg="-0.21220134" length="6.83885000">
                <paramPoly3 aU="0.00000000" bU="5.12908983" cU="5.12801006" dU="-3.41868561" aV="0.00000000" bV="0.00000000" cV="-0.23344627" dV="0.16210064" pRange="normalized"/>
            </geometry>
            <geometry s="40.53417273" x="1239.87000000" y="1101.34000000" hdg="-0.20841716" length="4.90718283">
                <paramPoly3 aU="0.00000000" bU="3.68026154" cU="3.67977468" dU="-2.45398407" aV="0.00000000" bV="0.00000000" cV="0.15870081" dV="-0.06147792" pRange="normalized"/>
            </geometry>
            <geometry s="45.44135556" x="1244.69000000" y="1100.42000000" hdg="-0.17227929" length="6.96772377">
                <line/>
            </geometry>
        </planView>
        <elevationProfile>
            <elevation s="0" a="0.00" b="0" c="0" d="0"/>
        </elevationProfile>
        <lateralProfile/>
        <lanes>
            <laneSection s="0">
                <center>
                    <lane id="0" type="none" level="true">
                        <link/>
                        <roadMark sOffset="0" type="solid" weight="standard" color="standard" width="0.13"/>
                    </lane>
                </center>
                <right>
                    <lane id="-1" type="driving" level="true">
                        <link/>
                        <width sOffset="0" a="3.50" b="0" c="0" d="0"/>
                        <roadMark sOffset="0" type="solid" weight="standard" color="standard" width="0.13"/>
                        <speed sOffset="0" max="16.67"/>
                    </lane>
                 </right>
            </laneSection>
        </lanes>
        <objects/>
        <signals/>
        <userData code="sumoId" value="-147779311"/>
    </road>
    <road name="Sandövägen" length="180.73038878" id="245" junction="-1">
        <link>
            <predecessor elementType="junction" elementId="3"/>
            <successor elementType="junction" elementId="6"/>
        </link>
        <type s="0" type="town"/>
        <planView>
            <geometry s="0.00000000" x="1266.10604859" y="1096.33875431" hdg="-0.22029419" length="8.73504955">
                <line/>
            </geometry>
            <geometry s="8.73504955" x="1274.63000000" y="1094.43000000" hdg="-0.22029419" length="12.13419168">
                <paramPoly3 aU="0.00000000" bU="9.09570675" cU="9.13243022" dU="-6.11905830" aV="0.00000000" bV="0.00000000" cV="-0.71788100" dV="0.04772146" pRange="normalized"/>
            </geometry>
            <geometry s="20.86924123" x="1286.30000000" y="1091.13000000" hdg="-0.36288766" length="40.36900420">
                <line/>
            </geometry>
            <geometry s="61.23824543" x="1324.04000000" y="1076.80000000" hdg="-0.36288766" length="10.86416264">
                <paramPoly3 aU="0.00000000" bU="8.14803792" cU="8.14749881" dU="-5.43219743" aV="0.00000000" bV="0.00000000" cV="0.21174331" dV="-0.08743012" pRange="normalized"/>
            </geometry>
            <geometry s="72.10240806" x="1334.23999977" y="1073.06000009" hdg="-0.34310293" length="6.16979859">
                <paramPoly3 aU="0.00000000" bU="4.62730577" cU="4.62590895" dU="-3.08413931" aV="0.00000000" bV="0.00000000" cV="0.19735947" dV="-0.10673404" pRange="normalized"/>
            </geometry>
            <geometry s="78.27220665" x="1340.08000010" y="1071.06999997" hdg="-0.32699852" length="12.51029578">
                <paramPoly3 aU="0.00000000" bU="9.38257488" cU="9.38446386" dU="-6.25694195" aV="0.00000000" bV="0.00000000" cV="-0.16252512" dV="0.17125647" pRange="normalized"/>
            </geometry>
            <geometry s="90.78250243" x="1351.93000003" y="1067.05999999" hdg="-0.30688337" length="8.82042189">
                <paramPoly3 aU="0.00000000" bU="6.61497757" cU="6.61121034" dU="-4.40956304" aV="0.00000000" bV="0.00000000" cV="0.44077806" dV="-0.19788215" pRange="normalized"/>
            </geometry>
            <geometry s="99.60292432" x="1360.40808573" y="1064.62814157" hdg="-0.26334571" length="16.66508336">
                <paramPoly3 aU="0.00000000" bU="12.49876015" cU="12.49789683" dU="-8.33224052" aV="0.00000000" bV="0.00000000" cV="0.27090694" dV="-0.12983873" pRange="normalized"/>
            </geometry>
            <geometry s="116.26800768" x="1376.53470913" y="1060.42639269" hdg="-0.25116038" length="2.98970090">
                <paramPoly3 aU="0.00000000" bU="2.24219672" cU="2.24177171" dU="-1.49501574" aV="0.00000000" bV="0.00000000" cV="0.10388997" dV="-0.04189138" pRange="normalized"/>
            </geometry>
            <geometry s="119.25770858" x="1379.44529087" y="1059.74360731" hdg="-0.21453373" length="16.66708705">
                <paramPoly3 aU="0.00000000" bU="12.50030550" cU="12.50029063" dU="-8.33358980" aV="0.00000000" bV="0.00000000" cV="0.07389879" dV="-0.02640493" pRange="normalized"/>
            </geometry>
            <geometry s="135.92479562" x="1395.74032990" y="1056.24174227" hdg="-0.20904721" length="2.73015029">
                <paramPoly3 aU="0.00000000" bU="2.04750000" cU="2.04851192" dU="-1.36636571" aV="0.00000000" bV="0.00000000" cV="0.03973151" dV="0.00421868" pRange="normalized"/>
            </geometry>
            <geometry s="138.65494592" x="1398.41967010" y="1055.71825773" hdg="-0.16404104" length="16.66058425">
                <paramPoly3 aU="0.00000000" bU="12.49542539" cU="12.49505617" dU="-8.33010121" aV="0.00000000" bV="0.00000000" cV="0.16756778" dV="-0.08866398" pRange="normalized"/>
            </geometry>
            <geometry s="155.31553017" x="1414.86927723" y="1053.07535695" hdg="-0.15850749" length="0.40466866">
                <paramPoly3 aU="0.00000000" bU="0.30347712" cU="0.30328138" dU="-0.20234058" aV="0.00000000" bV="0.00000000" cV="0.02317915" dV="-0.00989130" pRange="normalized"/>
            </geometry>
            <geometry s="155.72019882" x="1415.27072277" y="1053.02464305" hdg="-0.10350225" length="16.66605993">
                <paramPoly3 aU="0.00000000" bU="12.49927941" cU="12.50264637" dU="-8.33622231" aV="0.00000000" bV="0.00000000" cV="-0.26351263" dV="0.27247876" pRange="normalized"/>
            </geometry>
            <geometry s="172.38625875" x="1431.84816479" y="1051.31170155" hdg="-0.08026594" length="8.34413004">
                <line/>
            </geometry>
        </planView>
        <elevationProfile>
            <elevation s="0" a="0.00" b="0" c="0" d="0"/>
        </elevationProfile>
        <lateralProfile/>
        <lanes>
            <laneSection s="0">
                <center>
                    <lane id="0" type="none" level="true">
                        <link/>
                        <roadMark sOffset="0" type="solid" weight="standard" color="standard" width="0.13"/>
                    </lane>
                </center>
                <right>
                    <lane id="-1" type="driving" level="true">
                        <link/>
                        <width sOffset="0" a="3.50" b="0" c="0" d="0"/>
                        <roadMark sOffset="0" type="solid" weight="standard" color="standard" width="0.13"/>
                        <speed sOffset="0" max="16.67"/>
                    </lane>
                 </right>
            </laneSection>
        </lanes>
        <objects/>
        <signals/>
        <userData code="sumoId" value="-147779315#0"/>
    </road>
    <road name="Säröleden" length="51.24885250" id="246" junction="-1">
        <link>
            <predecessor elementType="junction" elementId="7"/>
            <successor elementType="junction" elementId="8"/>
        </link>
        <type s="0" type="town"/>
        <planView>
            <geometry s="0.00000000" x="1800.11000000" y="1158.66000000" hdg="-2.89071660" length="15.77821366">
                <line/>
            </geometry>
            <geometry s="15.77821366" x="1784.82571842" y="1154.74301610" hdg="-2.89071660" length="19.43541869">
                <paramPoly3 aU="-0.00000000" bU="14.57566233" cU="14.57565975" dU="-9.72288748" aV="0.00000000" bV="0.00000000" cV="-0.71124554" dV="0.23722287" pRange="normalized"/>
            </geometry>
            <geometry s="35.21363235" x="1765.88780752" y="1150.37903858" hdg="-2.93950371" length="16.03522015">
                <line/>
            </geometry>
        </planView>
        <elevationProfile>
            <elevation s="0" a="0.00" b="0" c="0" d="0"/>
        </elevationProfile>